Pcp_File_Version=4
*** BLOCK A: BASIC INFORMATION *****************************************
Heading
Welcome to HYDRUS-1D
LUnit  TUnit  MUnit  (indicated units are obligatory for all input data)
mm
days
mmol
lWat   lChem lTemp  lSink lRoot lShort lWDep lScreen lVariabBC lEquil lInverse
 t     t     f      t     f     t      f     t       t         t         f
lSnow  lHP1   lMeteo  lVapor lActiveU lFluxes lIrrig  lDummy  lDummy  lDummy
 f       f       f       f       f       t       f       f       f       f
NMat    NLay  CosAlpha
  1       1       1
*** BLOCK B: WATER FLOW INFORMATION ************************************
MaxIt   TolTh   TolH       (maximum number of iterations and tolerances)
  10    0.001     10
TopInf WLayer KodTop InitCond
 t     f      -1       f
BotInf qGWLF FreeD SeepF KodBot DrainF  hSeep
 f     f     t     f     -1      f      0
    hTab1   hTabN
    1e-005  100000
    Model   Hysteresis
      2          0
   thr     ths    Alfa      n         Ks       l
   0.05    0.46  0.0033     2.5        600     7.2 
*** BLOCK C: TIME INFORMATION ******************************************
        dt       dtMin       dtMax     DMul    DMul2  ItMin ItMax  MPL
      0.001      1e-005           5     1.3     0.7     3     7     5
      tInit        tMax
          0        1000
  lPrintD  nPrintSteps tPrintInterval lEnter
     t           1            10       t
TPrint(1),TPrint(2),...,TPrint(MPL)
        200         400         600         800        1000 
*** BLOCK F: SOLUTE TRANSPORT INFORMATION *****************************************************
 Epsi  lUpW  lArtD lTDep    cTolA    cTolR   MaxItC    PeCr  No.Solutes  lTort   iBacter   lFiltr  nChPar
  0.5     f     f     f         0         0     1        2        1       t       0        f       16
iNonEqul lWatDep lDualNEq lInitM  lInitEq lTort lDummy  lDummy  lDummy  lDummy  lCFTr
   0       f       f       f       f       f       t       f       f       f       f
     Bulk.d.     DisperL.      Frac      Mobile WC (1..NMat)
     0.0015           1           1           0 
         DifW       DifG                n-th solute
          0           0 
         Ks          Nu        Beta       Henry       SnkL1       SnkS1       SnkG1       SnkL1'      SnkS1'      SnkG1'      SnkL0       SnkS0       SnkG0        Alfa
          0           0           1           0           0           0           0           0           0           0           0           0           0           0 
      kTopSolute  SolTop    kBotSolute  SolBot
         -1          30           0           0 
      tPulse
       1000
*** BLOCK G: ROOT WATER UPTAKE INFORMATION *****************************
     Model  (0 - Feddes, 1 - S shape)  cRootMax    OmegaC
        1                                   0           1
       h50       P3
    -8000         3
     Solute Reduction
        t
     Additive * miltiplicative
        f
     c50        p             Osmotic Coefficients
      150         3         1 1
*** END OF INPUT FILE 'SELECTOR.IN' ************************************
